<routes>
    <route id="route1" edges="1to2"/>
    <vType accel="1.0" decel="1.0" id="Car1" length="3.0" maxSpeed="1.0" sigma="0"  minGap="2.5"/>

    <vehicle depart="0" id="veh0" route="route1" type="Car1" />
</routes>
