<edges>
    <edge from="1" id="1to2" to="2" />
</edges>
