[General]
cmdenv-express-mode = true
cmdenv-autoflush = true
cmdenv-status-frequency = 10000000s

repeat = 10
num-rngs = 1
seed-set = ${repetition}
*.manager.seed = ${repetition}

tkenv-default-config = debug
#tkenv-default-run = 1

ned-path = ../1node/
network = mfcv_rsu

##########################################################
#            Simulation parameters                       #
##########################################################
debug-on-errors = true
print-undisposed = false

sim-time-limit = 2000s

# record-eventlog = true # true to generate a .log file
**.scalar-recording = false #false
**.vector-recording = false #false
record-eventlog = false #false

**.debug = false
**.coreDebug = false

*.playgroundSizeX = 2100m
*.playgroundSizeY = 100m
*.playgroundSizeZ = 50m

##########################################################
# Annotation parameters                                  #
##########################################################
*.annotations.draw = false

##########################################################
# Obstacle parameters                                    #
##########################################################
*.obstacles.debug = false
#*.obstacles.obstacles = xmldoc("config.xml", "//AnalogueModel[@type='SimpleObstacleShadowing']/obstacles")

##########################################################
#            WorldUtility parameters                     #
##########################################################
*.world.useTorus = false
*.world.use2D = false

##########################################################
#            TraCIScenarioManager parameters             #
##########################################################
*.manager.updateInterval = 0.1s
*.manager.host = "localhost"
*.manager.port = 9999
*.manager.moduleType = "org.car2x.veins.nodes.Car"
*.manager.moduleName = "node"
*.manager.moduleDisplayString = ""
*.manager.autoShutdown = true
*.manager.margin = 25
*.manager.launchConfig = xmldoc("../0scenarios/range_oneLine_2km/range.launchd.xml")

##########################################################
#                       RSU SETTINGS                     #
##########################################################
# ned 1 -> *.. | ned 2 # -> 3
*.rsu[0].mobility.x = 25
*.rsu[0].mobility.y = 25
*.rsu[0].mobility.z = 3

*.*.appl.beaconTypeInitialize = 0 # 1 for mfcv, 2 for epidemic, 3 for minicurso_UFPI_TraCI, 0 for the default

*.rsu[*].applType = "default_veins_TraCI_RSU"
*.rsu[*].appl.debug = false
*.rsu[*].appl.headerLength = 256 bit
*.rsu[*].appl.sendBeacons = true
*.rsu[*].appl.dataOnSch = false
*.rsu[*].appl.sendData = false
*.rsu[*].appl.beaconInterval = 1s
*.rsu[*].appl.beaconPriority = 3
*.rsu[*].appl.dataPriority = 2
*.rsu[*].appl.maxOffset = 0.005s

##########################################################
#            11p specific parameters                     #
#                    NIC-Settings                        #
##########################################################
#################################################################
#                        SimplePathlossModel                    #
#################################################################
# Value of *.*.pMax and *.*.txPower                             #
#         - They diameter of communications                     #
#                  (~ Distance that the last packet arrived)    #
# 20mW    - 1000 m (~ 507 m)                                    #
#  5.2mW  -  510 m (~ 257 m)                                    #
#  5mW    -  500 m (~ 252 m)                                    #
#  4mW    -  440 m (~ 225 m)                                    #
#  3.4mW  -  410 m (~ 207 m)                                    #
#  3mW    -  380 m (~ 194 m)                                    #
#  2mW    -  310 m (~ 158 m)                                    #
#  1.4mW  -  260 m (~ 132 m)                                    #
#  1.3mW  -  250 m (~ 127 m)                                    #
#  1mW    -  220 m (~ 111 m)                                    #
#  0.5mW  -  150 m (~  77 m)                                    #
#  0.2mw  -   90 m (~  47 m)                                    #
#  0.1mW  -   60 m (~  32 m)                                    #
#  0.01mW -   30 m (~  16 m)                                    #
#################################################################

#################################################################
#                    TwoRayInterferenceModel                    #
#################################################################
# Value of *.*.pMax and *.*.txPower                             #
#         - They diameter of communications                     #
#                  (~ Distance that the last packet arrived)    #
# 20mW    - 1000 m (~ 507 m)                                    #
#  5.9mW  -  530 m (~ 274 m)                                    #
#  1mW    -  195 m (~  99 m)                                    #

#################################################################


*.connectionManager.pMax = 5mW # 20mW
*.connectionManager.sat = -89dBm
*.connectionManager.alpha = 2.0
*.connectionManager.carrierFrequency = 5.890e9 Hz
*.connectionManager.sendDirect = true

*.**.nic.mac1609_4.useServiceChannel = false

*.**.nic.mac1609_4.txPower = 5mW # 20mW
*.**.nic.mac1609_4.bitrate = 18Mbps

*.**.nic.phy80211p.sensitivity = -89dBm
*.**.nic.phy80211p.useThermalNoise = true
*.**.nic.phy80211p.thermalNoise = -110dBm
*.**.nic.phy80211p.decider = xmldoc("../1node/config.xml")
*.**.nic.phy80211p.analogueModels = xmldoc("../1node/config.xml")
*.**.nic.phy80211p.usePropagationDelay = true

##########################################################
#                    WaveAppLayer                        #
##########################################################
*.node[*].applType = "default_veins_TraCI"
*.node[*].appl.debug = false
*.node[*].appl.headerLength = 256 bit # 32 bytes
*.node[*].appl.sendBeacons = false
*.node[*].appl.dataOnSch = false
*.node[*].appl.sendData = false
*.node[*].appl.beaconInterval = 1s
*.node[*].appl.beaconPriority = 3
*.node[*].appl.dataPriority = 2
*.node[*].appl.maxOffset = 0.005s

##########################################################
#                      Mobility                          #
##########################################################
*.node[*].veinsmobilityType = "org.car2x.veins.modules.mobility.traci.TraCIMobility"
*.node[*].mobilityType = "TraCIMobility"
*.node[*].mobilityType.debug = true
*.node[*].veinsmobilityType.debug = true
*.node[*].veinsmobility.x = 0
*.node[*].veinsmobility.y = 0
*.node[*].veinsmobility.z = 1.895
*.node[*].veinsmobility.accidentCount = 0
*.node[*].veinsmobility.accidentStart = 75s
*.node[*].veinsmobility.accidentDuration = 30s

[Config nodebug]
description = "default settings"
**.debug = false
**.coreDebug = false
*.annotations.draw = false

[Config debug]
description = "(very slow!) draw and print additional debug information"
**.debug = true
**.coreDebug = true
*.annotations.draw = true
